LAMMPS (2 Aug 2023 - Maintenance - lammps-gui-v1.2)
Loaded 1 plugins from C:\Users\lasse\AppData\Local\LAMMPS 64-bit 2Aug2023 with GUI\plugins
# Define variables
# Starting temperature:
variable T equal 1
# Number of molecules:
variable N equal 500
# Density:
variable rho equal 0.001
# Length of sides of cubic box
variable L equal (500/0.001)^(1/3)
# How much heat to add per timestep
variable eFlux equal 1
# Spring bond (0) or rigid bond (1)
variable rigidbond equal 1

# Use Lennard-Jones units, periodic boundaries and atomic model
units lj
boundary p p p
atom_style full

# Define the space and put atoms in
dimension 3
region simbox block 0 $L 0 $L 0 $L
region simbox block 0 79.37005259841 0 $L 0 $L
region simbox block 0 79.37005259841 0 79.37005259841 0 $L
region simbox block 0 79.37005259841 0 79.37005259841 0 79.37005259841
create_box 1 simbox bond/types 1 extra/bond/per/atom 1
Created orthogonal box = (0 0 0) to (79.370053 79.370053 79.370053)

# Define properties of the molecules
bond_style class2
bond_coeff 1 0.7 35.0 -40.0 59.0
molecule LJdiat diat.molecule
Read molecule template LJdiat:
  1 molecules
  0 fragments
  2 atoms with max type 1
  1 bonds with max type 1
  0 angles with max type 0
  0 dihedrals with max type 0
  0 impropers with max type 0
create_atoms 0 random $N 12345 simbox mol LJdiat 1234
create_atoms 0 random 500 12345 simbox mol LJdiat 1234
Created 1000 atoms
mass 1 1.0
velocity all create $T 87287
velocity all create 1 87287
pair_style lj/class2 2.5
pair_coeff 1 1 1.0 1.0 2.5

#make sure no explosion happens
minimize 1e-4 1e-4 100 100
Generated 0 of 0 mixed pair_coeff terms from sixthpower/geometric mixing rule
Step          Temp          E_pair         E_mol          TotEng         Press
0   1              0.038707619    3.9757727e-28  1.5372076      0.0023963049
Loop time of 0.022781 on 1 procs for 43 steps with 1000 atoms

Minimization stats:
  Stopping criterion = max force evaluations
  Energy initial, next-to-last, final =
  Force two-norm initial, final = 767.6978 5.4870766
  Force max component initial, final = 303.12718 1.4918006
  Final line search alpha, max atom move = 0.028940798 0.043173899
  Iterations, force evaluations = 43 101

#Make the N-N bond rigid if rigidbond=1
fix shake all shake 0.0001 20 0 b 1
Finding SHAKE clusters ...
     500 = # of size 2 clusters
       0 = # of size 3 clusters
       0 = # of size 4 clusters
       0 = # of frozen angles
  find clusters CPU = 0.004 seconds
#timestep 2

# Speed up simulation with neighbour lists
neighbor 0.3 bin
neigh_modify every 1 delay 0 check yes

# Define thermodynamic ensemble for thermalization
fix nvt all nvt temp $T $T 1
fix nvt all nvt temp 1 $T 1
fix nvt all nvt temp 1 1 1

#Thermalization run
run             100000
Generated 0 of 0 mixed pair_coeff terms from sixthpower/geometric mixing rule
Step          Temp          E_pair         E_mol          TotEng         Press
43   1.2002403     -0.033401731    0              1.4650983      0.002629753
Loop time of 8.56861 on 1 procs for 100000 steps with 1000 atoms

# Define thermodynamic ensemble for long run
unfix nvt
fix nve all nve

# Start heat addition and run to stabilize
fix heat all heat 1 1 region simbox
run 1000
Generated 0 of 0 mixed pair_coeff terms from sixthpower/geometric mixing rule
Step          Temp          E_pair         E_mol          TotEng         Press
100043   0.97348984    -0.029707618    0              1.1856945      0.00096676839
Loop time of 0.113039 on 1 procs for 1000 steps with 1000 atoms

#Define frequency of thermodynamic output and trajectory dump and start production run
thermo_style custom step temp epair etotal press
thermo 100
dump 1 all custom 100 dump.lammpstrj id x y z vx vy vz
run 100000
Generated 0 of 0 mixed pair_coeff terms from sixthpower/geometric mixing rule
Step          Temp          E_pair         TotEng         Press
101043   0.97384705    -0.025211427    1.1906366      0.0009620891
Averages over the last 501 of 1002 rows, steps 151100 to 201043:
Temp E_pair TotEng Press
1.27187 -0.0217518 1.56617 0.00121653
Loop time of 17.6779 on 1 procs for 100000 steps with 1000 atoms
