LAMMPS (2 Aug 2023 - Maintenance - lammps-gui-v1.2)
Loaded 1 plugins from C:\Users\lasse\AppData\Local\LAMMPS 64-bit 2Aug2023 with GUI\plugins
units real
atom_style full

variable T equal 10
variable L1 equal 29
variable L2 equal 79
variable dL equal 79-29
variable Lq equal 29/4
variable L3q equal 3*7.25

region box block 0 29 0 29 0 29
create_box 1 box bond/types 1 extra/bond/per/atom 1
Created orthogonal box = (0 0 0) to (29 29 29)

pair_style lj/class2 10.0
pair_coeff * * 0.05980 3.8008
mass * 14.0

bond_style class2
bond_coeff 1 1.0977 1651.3730 -4069.3178 5984.9629
neigh_modify every 1 delay 0 check yes

molecule N2 N2.molecule
Read molecule template N2:
  1 molecules
  0 fragments
  2 atoms with max type 1
  1 bonds with max type 1
  0 angles with max type 0
  0 dihedrals with max type 0
  0 impropers with max type 0

create_atoms 0 random 700 12345 box mol N2 1234
Created 1400 atoms

thermo_style	custom step atoms temp epair etotal press vol
thermo          100

timestep 2

minimize 1e-4 1e-4 100 100
Generated 0 of 0 mixed pair_coeff terms from sixthpower/geometric mixing rule
Step        Atoms         Temp          E_pair         TotEng         Press          Volume
0        1400   0              8.3920877e+09  8.3920877e+09  7.079846e+10   24389
Loop time of 0.646431 on 1 procs for 80 steps with 1400 atoms

Minimization stats:
  Stopping criterion = max force evaluations
  Energy initial, next-to-last, final =
  Force two-norm initial, final = 2.7557167e+11 154.2064
  Force max component initial, final = 1.7961527e+11 33.042602
  Final line search alpha, max atom move = 0.00058606977 0.01936527
  Iterations, force evaluations = 80 101

velocity all create $T 4928459
velocity all create 10 4928459

fix nvt all nvt temp $T $T 50
fix nvt all nvt temp 10 $T 50
fix nvt all nvt temp 10 10 50
compute pressure all pressure thermo_temp
variable volume equal vol
fix aveP all ave/time 30 30 900 c_pressure file pressure.txt
fix aveV all ave/time 30 30 900 v_volume file volume.txt

region rhot block 0 7.25 0 29 0 29
region rcold block 21.75 29 0 29 0 29
# fix fhot all ehex 1 0.02 region rhot
#fix fcold all ehex 1 -0.01 region rcold

#run 1000

fix deformX all deform 10 x delta 0 50
dump 1 all custom 100 N2phase.lammpstrj id x y z vx vy vz
run 15000
Generated 0 of 0 mixed pair_coeff terms from sixthpower/geometric mixing rule
Step        Atoms         Temp          E_pair         TotEng         Press          Volume
80        1400   10             829.29412      872.38546      26949.745      24389
Averages over the last 76 of 152 rows, steps 7600 to 15080:
Atoms Temp E_pair TotEng Press Volume
1400 10.0521 -923.357 -881.396 -185.141 55981.8
Loop time of 47.2485 on 1 procs for 15000 steps with 1400 atoms
