LAMMPS (2 Aug 2023 - Maintenance - lammps-gui-v1.2)
Loaded 1 plugins from C:\Users\lasse\AppData\Local\LAMMPS 64-bit 2Aug2023 with GUI\plugins
# Define variables
# Starting temperature:
variable T equal 1
# Number of particles:
variable N equal 1024
# Density:
variable rho equal 0.01
# Length of sides of cubic box
variable L equal (1024/0.01)^(1/3)

# Use Lennard-Jones units, periodic boundaries and atomic model
units lj
boundary p p p
atom_style atomic

# Define the space and put atoms in
dimension 3
region simbox block 0 $L 0 $L 0 $L
region simbox block 0 46.7842838114058 0 $L 0 $L
region simbox block 0 46.7842838114058 0 46.7842838114058 0 $L
region simbox block 0 46.7842838114058 0 46.7842838114058 0 46.7842838114058
create_box 1 simbox
Created orthogonal box = (0 0 0) to (46.784284 46.784284 46.784284)

# Define properties of the atoms
lattice fcc 0.01
Lattice spacing in x,y,z = 7.368063 7.368063 7.368063
create_atoms 1 box
Created 1099 atoms
#create_atoms 1 random $N 12345 simbox
mass 1 1.0
velocity all create $T 87287
velocity all create 1 87287
pair_style lj/cut 2.5
pair_coeff 1 1 1.0 1.0 2.5

#make sure no explosion happens
minimize 1e-4 1e-4 100 100
Generated 0 of 0 mixed pair_coeff terms from geometric mixing rule
Step          Temp          E_pair         E_mol          TotEng         Press
0   1              0              0              1.4986351      0.010722656
Loop time of 0.000455 on 1 procs for 1 steps with 1099 atoms

Minimization stats:
  Stopping criterion = search direction is not downhill
  Energy initial, next-to-last, final =
  Force two-norm initial, final = 0 0
  Force max component initial, final = 0 0
  Final line search alpha, max atom move = 0 0
  Iterations, force evaluations = 1 0

# Speed up simulation with neighbour lists
neighbor 0.3 bin
neigh_modify every 20 delay 0 check yes

# Define thermodynamic ensemble for thermalization
fix nvt all nvt temp $T $T 1
fix nvt all nvt temp 1 $T 1
fix nvt all nvt temp 1 1 1

#Thermalization run
run 10000
Generated 0 of 0 mixed pair_coeff terms from geometric mixing rule
Step          Temp          E_pair         E_mol          TotEng         Press
1   1              0              0              1.4986351      0.010722656
Loop time of 0.424451 on 1 procs for 10000 steps with 1099 atoms

# Define thermodynamic ensemble for long run
unfix nvt
fix nve all nve

#Define frequency of thermodynamic output and trajectory dump and start production run
thermo 100
dump 1 all custom 100 dump.lammpstrj id type x y z vx vy vz
run 10000
Generated 0 of 0 mixed pair_coeff terms from geometric mixing rule
Step          Temp          E_pair         E_mol          TotEng         Press
10001   1.0104758     -0.0766115      0              1.4377231      0.010459225
Averages over the last 51 of 102 rows, steps 15100 to 20001:
Temp E_pair E_mol TotEng Press
1.01937 -0.091033 0 1.43664 0.0104344
Loop time of 0.953281 on 1 procs for 10000 steps with 1099 atoms
