LAMMPS (2 Aug 2023 - Maintenance - lammps-gui-v1.2)
Loaded 1 plugins from C:\Users\lasse\AppData\Local\LAMMPS 64-bit 2Aug2023 with GUI\plugins
# Define variables
# Length of sides of cubic box
variable L equal 5
# Temperature:
variable T equal 1.4
# Density:
variable rho equal 0.47
# Pressure:
variable P equal 0.01
# Set Pconst=1 for pressure constant, Pconst=0 for volume constant
variable Pconst equal 0

units lj
dimension 3
lattice fcc 0.47
Lattice spacing in x,y,z = 2.0416786 2.0416786 2.0416786
region simbox block 0 $L 0 $L 0 $L
region simbox block 0 5 0 $L 0 $L
region simbox block 0 5 0 5 0 $L
region simbox block 0 5 0 5 0 5
create_box 1 simbox
Created orthogonal box = (0 0 0) to (10.208393 10.208393 10.208393)
create_atoms 1 box
Created 500 atoms

mass 1 1.0
velocity all create $T 87287
velocity all create 1.4 87287
pair_style lj/cut 2.5
pair_coeff 1 1 1.0 1.0 2.5

fix nvt all nvt temp $T $T 1
fix nvt all nvt temp 1.4 $T 1
fix nvt all nvt temp 1.4 1.4 1
neigh_modify every 1 delay 0 check yes

#Thermalization run
run 1000
Generated 0 of 0 mixed pair_coeff terms from geometric mixing rule
Step          Temp          E_pair         E_mol          TotEng         Press
0   1.4           -2.5214068      0             -0.42560679    -1.4360743
Loop time of 0.267961 on 1 procs for 1000 steps with 500 atoms

unfix nvt
fix nve all nve

#Start heat addition and run to stabilize
variable eFlux equal 1
fix heat all heat 1 1 region simbox
run 1000
Generated 0 of 0 mixed pair_coeff terms from geometric mixing rule
Step          Temp          E_pair         E_mol          TotEng         Press
1000   1.3971554     -2.9400065      0             -0.84846489     0.29618409
Loop time of 0.261239 on 1 procs for 1000 steps with 500 atoms

#Define new thermodynamic output and trajectory dump and start production run
thermo_style custom step temp epair etotal press
thermo 100
dump 1 all custom 100 dump.lammpstrj id x y z vx vy vz
run 100000
Generated 0 of 0 mixed pair_coeff terms from geometric mixing rule
Step          Temp          E_pair         TotEng         Press
2000   1.3306975     -2.8292921     -0.8372379      0.51953505
Averages over the last 501 of 1001 rows, steps 52000 to 102000:
Temp E_pair TotEng Press
1.79287 -2.77225 -0.0883265 0.928227
Loop time of 32.7727 on 1 procs for 100000 steps with 500 atoms
